Circuit: * C:\Users\timea\OneDrive\Desktop\Sem 1\DCS\Lab 2\NOR\Draft1.asc

WARNING: Node N002 is floating.

Direct Newton iteration for .op point succeeded.

Date: Tue Oct 19 17:03:50 2021
Total elapsed time: 0.155 seconds.

tnom = 27
temp = 27
method = modified trap
totiter = 6653
traniter = 6643
tranpoints = 2831
accept = 2478
rejected = 353
matrix size = 25
fillins = 4
solver = Normal
Matrix Compiler1: 2.84 KB object code size  0.8/0.4/[0.3]
Matrix Compiler2: off  [0.3]/0.6/0.4

